LTspice 24.1.9 for Windows
Circuit: C:\Users\toppe\OneDrive - CSU Maritime Academy\Documents\GitHub\Strain-Sensor-\Fritzing Files\LM Circuits\Camera Circuit\Draft6.net
Start Time: Wed Apr  1 10:42:05 2026
solver = Normal
Maximum thread count: 20
tnom = 27
temp = 27
method = trap
C:\Users\toppe\OneDrive - CSU Maritime Academy\Documents\GitHub\Strain-Sensor-\Fritzing Files\LM Circuits\Camera Circuit\Draft6.net(5): WARNING: Specified period is not longer than the sum of Trise, Tfall, and Ton. Increasing period to 0.1002.

V1 Va 0 PULSE(0 1 0 0.0001 0.0001 0.1 0.06 3)
^^^^^^^^^^^^^^^^^^^^^^^^^^^^^^^^^^^^^^^^^^^^^
.OP point found by inspection.
Total elapsed time: 0.066 seconds.

Files loaded:
C:\Users\toppe\OneDrive - CSU Maritime Academy\Documents\GitHub\Strain-Sensor-\Fritzing Files\LM Circuits\Camera Circuit\Draft6.net

