LTspice 24.1.9 for Windows
Circuit: C:\Users\toppe\OneDrive - CSU Maritime Academy\Documents\GitHub\Strain-Sensor-\Fritzing Files\LM Circuits\Camera Circuit\Draft2.net
Start Time: Wed Mar 25 09:15:45 2026
solver = Normal
Maximum thread count: 20
tnom = 27
temp = 27
method = trap
.OP point found by inspection.
Total elapsed time: 0.087 seconds.

Files loaded:
C:\Users\toppe\OneDrive - CSU Maritime Academy\Documents\GitHub\Strain-Sensor-\Fritzing Files\LM Circuits\Camera Circuit\Draft2.net

