LTspice 24.1.9 for Windows
Circuit: C:\Users\toppe\OneDrive - CSU Maritime Academy\Documents\GitHub\Strain-Sensor-\Fritzing Files\LM Circuits\Camera Circuit\Draft1.net
Start Time: Tue Mar 24 20:51:29 2026
solver = Normal
Maximum thread count: 20
tnom = 27
temp = 27
method = trap
.OP point found by inspection.
Total elapsed time: 0.124 seconds.

Files loaded:
C:\Users\toppe\OneDrive - CSU Maritime Academy\Documents\GitHub\Strain-Sensor-\Fritzing Files\LM Circuits\Camera Circuit\Draft1.net

